/*--------------------------------*- C++ -*----------------------------------*\
| =========                 |                                                 |
| \\      /  F ield         | OpenFOAM: The Open Source CFD Toolbox           |
|  \\    /   O peration     | Version:  2.4.0                                 |
|   \\  /    A nd           | Web:      www.OpenFOAM.org                      |
|    \\/     M anipulation  |                                                 |
\*---------------------------------------------------------------------------*/
FoamFile
{
    version     2.0;
    format      ascii;
    class       dictionary;
    location    "system";
    object      mapFieldsDict;
}
// * * * * * * * * * * * * * * * * * * * * * * * * * * * * * * * * * * * * * //

//- SEE: For options
//- https://www.openfoam.com/documentation/guides/latest/doc/guide-fos-field-mapFields.html
mapMethod       correctedCellVolumeWeight; //mapNearest; //cellVolumeWeight; //
patchMapMethod  partialFaceAreaWeightAMI; //direct; //

patchMap        ( ); //( cylinderWalls ); //
cuttingPatches  ( frontAndBack bottom top inlet outlet );

// ************************************************************************* //
